examples/feeders/22_SE001_1/004_chavesMT.dss
New Line.17CF_1261 phases=3 bus1=722471.1.2.3 bus2=17CF1261.1.2.3 r1=0.001 r0=0.001 x1=0 x0=0 c1=0 c0=0 length=0.001 switch=T
New Line.17CF_1305 phases=1 bus1=744231.1 bus2=17CF1305.1 r1=0.001 r0=0.001 x1=0 x0=0 c1=0 c0=0 length=0.001 switch=T
New Line.17CF_1351 phases=1 bus1=676621.2 bus2=17CF1351.2 r1=0.001 r0=0.001 x1=0 x0=0 c1=0 c0=0 length=0.001 switch=T
New Line.17CF_1478 phases=1 bus1=785581.2 bus2=17CF1478.2 r1=0.001 r0=0.001 x1=0 x0=0 c1=0 c0=0 length=0.001 switch=T
New Line.17CF_1481 phases=1 bus1=765681.2 bus2=17CF1481.2 r1=0.001 r0=0.001 x1=0 x0=0 c1=0 c0=0 length=0.001 switch=T
New Line.17CF_1495 phases=3 bus1=764391.1.2.3 bus2=17CF1495.1.2.3 r1=0.001 r0=0.001 x1=0 x0=0 c1=0 c0=0 length=0.001 switch=T
New Line.17CF_1561 phases=3 bus1=749911.1.2.3 bus2=17CF1561.1.2.3 r1=0.001 r0=0.001 x1=0 x0=0 c1=0 c0=0 length=0.001 switch=T
New Line.17CF_1618 phases=3 bus1=764301.1.2.3 bus2=17CF1618.1.2.3 r1=0.001 r0=0.001 x1=0 x0=0 c1=0 c0=0 length=0.001 switch=T
New Line.17CF_1619 phases=3 bus1=762511.1.2.3 bus2=17CF1619.1.2.3 r1=0.001 r0=0.001 x1=0 x0=0 c1=0 c0=0 length=0.001 switch=T
New Line.17CF_1719 phases=3 bus1=778311.1.2.3 bus2=17CF1719.1.2.3 r1=0.001 r0=0.001 x1=0 x0=0 c1=0 c0=0 length=0.001 switch=T
New Line.17CF_1775 phases=3 bus1=785611.1.2.3 bus2=17CF1775.1.2.3 r1=0.001 r0=0.001 x1=0 x0=0 c1=0 c0=0 length=0.001 switch=T
New Line.17CF_1776 phases=1 bus1=785601.1 bus2=17CF1776.1 r1=0.001 r0=0.001 x1=0 x0=0 c1=0 c0=0 length=0.001 switch=T
New Line.17CF_1784 phases=3 bus1=792651.1.2.3 bus2=17CF1784.1.2.3 r1=0.001 r0=0.001 x1=0 x0=0 c1=0 c0=0 length=0.001 switch=T
New Line.17CF_1785 phases=1 bus1=786851.2 bus2=17CF1785.2 r1=0.001 r0=0.001 x1=0 x0=0 c1=0 c0=0 length=0.001 switch=T
New Line.17CF_1786 phases=1 bus1=786861.1 bus2=17CF1786.1 r1=0.001 r0=0.001 x1=0 x0=0 c1=0 c0=0 length=0.001 switch=T
New Line.17CF_1787 phases=1 bus1=786871.1 bus2=17CF1787.1 r1=0.001 r0=0.001 x1=0 x0=0 c1=0 c0=0 length=0.001 switch=T
New Line.17CF_1788 phases=3 bus1=786881.1.2.3 bus2=17CF1788.1.2.3 r1=0.001 r0=0.001 x1=0 x0=0 c1=0 c0=0 length=0.001 switch=T
New Line.17CF_1789 phases=1 bus1=786912.1 bus2=17CF1789.1 r1=0.001 r0=0.001 x1=0 x0=0 c1=0 c0=0 length=0.001 switch=T
New Line.17CF_1790 phases=1 bus1=788711.2 bus2=17CF1790.2 r1=0.001 r0=0.001 x1=0 x0=0 c1=0 c0=0 length=0.001 switch=T
New Line.17CF_1791 phases=3 bus1=788701.1.2.3 bus2=17CF1791.1.2.3 r1=0.001 r0=0.001 x1=0 x0=0 c1=0 c0=0 length=0.001 switch=T
New Line.17CF_1792 phases=3 bus1=788691.1.2.3 bus2=17CF1792.1.2.3 r1=0.001 r0=0.001 x1=0 x0=0 c1=0 c0=0 length=0.001 switch=T
New Line.17CF_1897 phases=3 bus1=791491.1.2.3 bus2=17CF1897.1.2.3 r1=0.001 r0=0.001 x1=0 x0=0 c1=0 c0=0 length=0.001 switch=T
New Line.17CF_653 phases=3 bus1=814711.1.2.3 bus2=17CF653.1.2.3 r1=0.001 r0=0.001 x1=0 x0=0 c1=0 c0=0 length=0.001 switch=T
New Line.17CF_901 phases=1 bus1=195531.1 bus2=17CF901.1 r1=0.001 r0=0.001 x1=0 x0=0 c1=0 c0=0 length=0.001 switch=T
New Line.17CS_1594 phases=3 bus1=760271.1.2.3 bus2=17CS1594.1.2.3 r1=0.001 r0=0.001 x1=0 x0=0 c1=0 c0=0 length=0.001 switch=T
New Line.17CS_1751 phases=3 bus1=785111.1.2.3 bus2=17CS1751.1.2.3 r1=0.001 r0=0.001 x1=0 x0=0 c1=0 c0=0 length=0.001 switch=T
New Line.17CS_1780 phases=3 bus1=768911.1.2.3 bus2=17CS1780.1.2.3 r1=0.001 r0=0.001 x1=0 x0=0 c1=0 c0=0 length=0.001 switch=T
New Line.17CS_1781 phases=3 bus1=786891.1.2.3 bus2=17CS1781.1.2.3 r1=0.001 r0=0.001 x1=0 x0=0 c1=0 c0=0 length=0.001 switch=T
New Line.17CS_596 phases=3 bus1=792831.1.2.3 bus2=17CS596.1.2.3 r1=0.001 r0=0.001 x1=0 x0=0 c1=0 c0=0 length=0.001 switch=T
New Line.17DJ_22 phases=3 bus1=1_SE001_22.1.2.3 bus2=17DJ22.1.2.3 r1=0.001 r0=0.001 x1=0 x0=0 c1=0 c0=0 length=0.001 switch=T
New Line.17FR_1777 phases=3 bus1=785631.1.2.3 bus2=17FR1777.1.2.3 r1=0.001 r0=0.001 x1=0 x0=0 c1=0 c0=0 length=0.001 switch=T
New Line.17FR_778 phases=1 bus1=788681.2 bus2=17FR778.2 r1=0.001 r0=0.001 x1=0 x0=0 c1=0 c0=0 length=0.001 switch=T
New Line.17RL_1739 phases=3 bus1=788721.1.2.3 bus2=17RL1739.1.2.3 r1=0.001 r0=0.001 x1=0 x0=0 c1=0 c0=0 length=0.001 switch=T
New Line.17RL_5212 phases=3 bus1=789541.1.2.3 bus2=17RL5212.1.2.3 r1=0.001 r0=0.001 x1=0 x0=0 c1=0 c0=0 length=0.001 switch=T
New Line.18CF_1023 phases=3 bus1=790011.1.2.3 bus2=18CF1023.1.2.3 r1=0.001 r0=0.001 x1=0 x0=0 c1=0 c0=0 length=0.001 switch=T
New Line.18CF_1046 phases=1 bus1=638351.1 bus2=18CF1046.1 r1=0.001 r0=0.001 x1=0 x0=0 c1=0 c0=0 length=0.001 switch=T
New Line.18CF_1062 phases=1 bus1=642931.3 bus2=18CF1062.3 r1=0.001 r0=0.001 x1=0 x0=0 c1=0 c0=0 length=0.001 switch=T
New Line.18CF_1073 phases=1 bus1=362471.3 bus2=18CF1073.3 r1=0.001 r0=0.001 x1=0 x0=0 c1=0 c0=0 length=0.001 switch=T
New Line.18CF_1091 phases=2 bus1=768161.1.2 bus2=18CF1091.1.2 r1=0.001 r0=0.001 x1=0 x0=0 c1=0 c0=0 length=0.001 switch=T
New Line.18CF_1385 phases=1 bus1=742111.1 bus2=18CF1385.1 r1=0.001 r0=0.001 x1=0 x0=0 c1=0 c0=0 length=0.001 switch=T
New Line.18CF_1457 phases=1 bus1=689111.2 bus2=18CF1457.2 r1=0.001 r0=0.001 x1=0 x0=0 c1=0 c0=0 length=0.001 switch=T
New Line.18CF_1679 phases=1 bus1=774601.3 bus2=18CF1679.3 r1=0.001 r0=0.001 x1=0 x0=0 c1=0 c0=0 length=0.001 switch=T
New Line.18CF_1763 phases=1 bus1=801871.1 bus2=18CF1763.1 r1=0.001 r0=0.001 x1=0 x0=0 c1=0 c0=0 length=0.001 switch=T
New Line.18CF_1919 phases=1 bus1=813501.2 bus2=18CF1919.2 r1=0.001 r0=0.001 x1=0 x0=0 c1=0 c0=0 length=0.001 switch=T
New Line.18CF_234 phases=3 bus1=107571.1.2.3 bus2=18CF234.1.2.3 r1=0.001 r0=0.001 x1=0 x0=0 c1=0 c0=0 length=0.001 switch=T
New Line.18CF_435 phases=1 bus1=267061.1 bus2=18CF435.1 r1=0.001 r0=0.001 x1=0 x0=0 c1=0 c0=0 length=0.001 switch=T
New Line.18CF_497 phases=1 bus1=633271.3 bus2=18CF497.3 r1=0.001 r0=0.001 x1=0 x0=0 c1=0 c0=0 length=0.001 switch=T
New Line.18CF_849 phases=1 bus1=434651.2 bus2=18CF849.2 r1=0.001 r0=0.001 x1=0 x0=0 c1=0 c0=0 length=0.001 switch=T
New Line.18CS_1106 phases=3 bus1=757441.1.2.3 bus2=18CS1106.1.2.3 r1=0.001 r0=0.001 x1=0 x0=0 c1=0 c0=0 length=0.001 switch=T
New Line.18CS_922 phases=3 bus1=267121.1.2.3 bus2=18CS922.1.2.3 r1=0.001 r0=0.001 x1=0 x0=0 c1=0 c0=0 length=0.001 switch=T
New Line.18FR_1395 phases=2 bus1=691111.1.2 bus2=18FR1395.1.2 r1=0.001 r0=0.001 x1=0 x0=0 c1=0 c0=0 length=0.001 switch=T
New Line.18FS_173 phases=1 bus1=304861.2 bus2=18FS173.2 r1=0.001 r0=0.001 x1=0 x0=0 c1=0 c0=0 length=0.001 switch=T
New Line.18FS_373 phases=1 bus1=340681.1 bus2=18FS373.1 r1=0.001 r0=0.001 x1=0 x0=0 c1=0 c0=0 length=0.001 switch=T
New Line.1CF_1165 phases=2 bus1=661531.1.2 bus2=1CF1165.1.2 r1=0.001 r0=0.001 x1=0 x0=0 c1=0 c0=0 length=0.001 switch=T
New Line.20CF_1096 phases=1 bus1=659421.2 bus2=20CF1096.2 r1=0.001 r0=0.001 x1=0 x0=0 c1=0 c0=0 length=0.001 switch=T
New Line.20CF_1149 phases=3 bus1=441071.1.2.3 bus2=20CF1149.1.2.3 r1=0.001 r0=0.001 x1=0 x0=0 c1=0 c0=0 length=0.001 switch=T
New Line.20CF_1150 phases=1 bus1=445131.3 bus2=20CF1150.3 r1=0.001 r0=0.001 x1=0 x0=0 c1=0 c0=0 length=0.001 switch=T
New Line.20CF_1151 phases=1 bus1=446251.3 bus2=20CF1151.3 r1=0.001 r0=0.001 x1=0 x0=0 c1=0 c0=0 length=0.001 switch=T
New Line.20CF_1339 phases=1 bus1=343831.2 bus2=20CF1339.2 r1=0.001 r0=0.001 x1=0 x0=0 c1=0 c0=0 length=0.001 switch=T
New Line.20CF_1377 phases=1 bus1=691461.3 bus2=20CF1377.3 r1=0.001 r0=0.001 x1=0 x0=0 c1=0 c0=0 length=0.001 switch=T
New Line.20CF_1383 phases=1 bus1=378711.1 bus2=20CF1383.1 r1=0.001 r0=0.001 x1=0 x0=0 c1=0 c0=0 length=0.001 switch=T
New Line.20CF_1384 phases=1 bus1=742091.1 bus2=20CF1384.1 r1=0.001 r0=0.001 x1=0 x0=0 c1=0 c0=0 length=0.001 switch=T
New Line.20CF_1386 phases=1 bus1=742131.1 bus2=20CF1386.1 r1=0.001 r0=0.001 x1=0 x0=0 c1=0 c0=0 length=0.001 switch=T
New Line.20CF_1387 phases=1 bus1=742141.1 bus2=20CF1387.1 r1=0.001 r0=0.001 x1=0 x0=0 c1=0 c0=0 length=0.001 switch=T
New Line.20CF_1425 phases=3 bus1=752251.1.2.3 bus2=20CF1425.1.2.3 r1=0.001 r0=0.001 x1=0 x0=0 c1=0 c0=0 length=0.001 switch=T
New Line.20CF_1446 phases=1 bus1=673731.2 bus2=20CF1446.2 r1=0.001 r0=0.001 x1=0 x0=0 c1=0 c0=0 length=0.001 switch=T
New Line.20CF_1915 phases=1 bus1=814411.2 bus2=20CF1915.2 r1=0.001 r0=0.001 x1=0 x0=0 c1=0 c0=0 length=0.001 switch=T
New Line.20CF_1925 phases=3 bus1=816401.1.2.3 bus2=20CF1925.1.2.3 r1=0.001 r0=0.001 x1=0 x0=0 c1=0 c0=0 length=0.001 switch=T
New Line.20CF_1938 phases=3 bus1=814611.1.2.3 bus2=20CF1938.1.2.3 r1=0.001 r0=0.001 x1=0 x0=0 c1=0 c0=0 length=0.001 switch=T
New Line.20CF_466 phases=3 bus1=312241.1.2.3 bus2=20CF466.1.2.3 r1=0.001 r0=0.001 x1=0 x0=0 c1=0 c0=0 length=0.001 switch=T
New Line.20CF_468 phases=3 bus1=795851.1.2.3 bus2=20CF468.1.2.3 r1=0.001 r0=0.001 x1=0 x0=0 c1=0 c0=0 length=0.001 switch=T
New Line.20CF_470 phases=3 bus1=254461.1.2.3 bus2=20CF470.1.2.3 r1=0.001 r0=0.001 x1=0 x0=0 c1=0 c0=0 length=0.001 switch=T
New Line.20CF_471 phases=3 bus1=770491.1.2.3 bus2=20CF471.1.2.3 r1=0.001 r0=0.001 x1=0 x0=0 c1=0 c0=0 length=0.001 switch=T
New Line.20CF_473 phases=3 bus1=625331.1.2.3 bus2=20CF473.1.2.3 r1=0.001 r0=0.001 x1=0 x0=0 c1=0 c0=0 length=0.001 switch=T
New Line.20CF_474 phases=3 bus1=794031.1.2.3 bus2=20CF474.1.2.3 r1=0.001 r0=0.001 x1=0 x0=0 c1=0 c0=0 length=0.001 switch=T
New Line.20CF_475 phases=1 bus1=255241.2 bus2=20CF475.2 r1=0.001 r0=0.001 x1=0 x0=0 c1=0 c0=0 length=0.001 switch=T
New Line.20CF_476 phases=3 bus1=255271.1.2.3 bus2=20CF476.1.2.3 r1=0.001 r0=0.001 x1=0 x0=0 c1=0 c0=0 length=0.001 switch=T
New Line.20CF_479 phases=2 bus1=255371.3.1 bus2=20CF479.3.1 r1=0.001 r0=0.001 x1=0 x0=0 c1=0 c0=0 length=0.001 switch=T
New Line.20CF_483 phases=3 bus1=459601.1.2.3 bus2=20CF483.1.2.3 r1=0.001 r0=0.001 x1=0 x0=0 c1=0 c0=0 length=0.001 switch=T
New Line.20CF_486 phases=1 bus1=802001.3 bus2=20CF486.3 r1=0.001 r0=0.001 x1=0 x0=0 c1=0 c0=0 length=0.001 switch=T
New Line.20CF_487 phases=1 bus1=801991.2 bus2=20CF487.2 r1=0.001 r0=0.001 x1=0 x0=0 c1=0 c0=0 length=0.001 switch=T
New Line.20CF_698 phases=3 bus1=339061.1.2.3 bus2=20CF698.1.2.3 r1=0.001 r0=0.001 x1=0 x0=0 c1=0 c0=0 length=0.001 switch=T
New Line.20CF_729 phases=1 bus1=597331.2 bus2=20CF729.2 r1=0.001 r0=0.001 x1=0 x0=0 c1=0 c0=0 length=0.001 switch=T
New Line.20CF_817 phases=3 bus1=610361.1.2.3 bus2=20CF817.1.2.3 r1=0.001 r0=0.001 x1=0 x0=0 c1=0 c0=0 length=0.001 switch=T
New Line.20CF_910 phases=3 bus1=660391.1.2.3 bus2=20CF910.1.2.3 r1=0.001 r0=0.001 x1=0 x0=0 c1=0 c0=0 length=0.001 switch=T
New Line.20CS_1108 phases=3 bus1=760021.1.2.3 bus2=20CS1108.1.2.3 r1=0.001 r0=0.001 x1=0 x0=0 c1=0 c0=0 length=0.001 switch=T
New Line.20CS_1289 phases=3 bus1=739411.1.2.3 bus2=20CS1289.1.2.3 r1=0.001 r0=0.001 x1=0 x0=0 c1=0 c0=0 length=0.001 switch=T
New Line.20CS_1659 phases=3 bus1=813551.1.2.3 bus2=20CS1659.1.2.3 r1=0.001 r0=0.001 x1=0 x0=0 c1=0 c0=0 length=0.001 switch=T
New Line.20CS_276 phases=3 bus1=361551.1.2.3 bus2=20CS276.1.2.3 r1=0.001 r0=0.001 x1=0 x0=0 c1=0 c0=0 length=0.001 switch=T
New Line.20CS_467 phases=3 bus1=312311.1.2.3 bus2=20CS467.1.2.3 r1=0.001 r0=0.001 x1=0 x0=0 c1=0 c0=0 length=0.001 switch=T
New Line.20CS_482 phases=2 bus1=423091.1.2 bus2=20CS482.1.2 r1=0.001 r0=0.001 x1=0 x0=0 c1=0 c0=0 length=0.001 switch=T
New Line.20CS_697 phases=3 bus1=339091.1.2.3 bus2=20CS697.1.2.3 r1=0.001 r0=0.001 x1=0 x0=0 c1=0 c0=0 length=0.001 switch=T
New Line.20FR_1246 phases=3 bus1=757811.1.2.3 bus2=20FR1246.1.2.3 r1=0.001 r0=0.001 x1=0 x0=0 c1=0 c0=0 length=0.001 switch=T
New Line.20FR_1877 phases=3 bus1=794691.1.2.3 bus2=20FR1877.1.2.3 r1=0.001 r0=0.001 x1=0 x0=0 c1=0 c0=0 length=0.001 switch=T
New Line.20FR_469 phases=1 bus1=751751.3 bus2=20FR469.3 r1=0.001 r0=0.001 x1=0 x0=0 c1=0 c0=0 length=0.001 switch=T
New Line.20FR_477 phases=3 bus1=376161.1.2.3 bus2=20FR477.1.2.3 r1=0.001 r0=0.001 x1=0 x0=0 c1=0 c0=0 length=0.001 switch=T
New Line.20FR_480 phases=2 bus1=222881.1.2 bus2=20FR480.1.2 r1=0.001 r0=0.001 x1=0 x0=0 c1=0 c0=0 length=0.001 switch=T
New Line.20FR_484 phases=1 bus1=764841.1 bus2=20FR484.1 r1=0.001 r0=0.001 x1=0 x0=0 c1=0 c0=0 length=0.001 switch=T
New Line.20FR_999 phases=3 bus1=550901.1.2.3 bus2=20FR999.1.2.3 r1=0.001 r0=0.001 x1=0 x0=0 c1=0 c0=0 length=0.001 switch=T
New Line.20FS_481 phases=1 bus1=736611.1 bus2=20FS481.1 r1=0.001 r0=0.001 x1=0 x0=0 c1=0 c0=0 length=0.001 switch=T
New Line.20FS_699 phases=1 bus1=339051.1 bus2=20FS699.1 r1=0.001 r0=0.001 x1=0 x0=0 c1=0 c0=0 length=0.001 switch=T
New Line.20RL_1579 phases=3 bus1=761222.1.2.3 bus2=20RL1579.1.2.3 r1=0.001 r0=0.001 x1=0 x0=0 c1=0 c0=0 length=0.001 switch=T
New Line.20RL_472 phases=3 bus1=795081.1.2.3 bus2=20RL472.1.2.3 r1=0.001 r0=0.001 x1=0 x0=0 c1=0 c0=0 length=0.001 switch=T
New Line.20SA_478 phases=3 bus1=345251.1.2.3 bus2=20SA478.1.2.3 r1=0.001 r0=0.001 x1=0 x0=0 c1=0 c0=0 length=0.001 switch=T
New Line.22CF_1024 phases=3 bus1=29391.1.2.3 bus2=22CF1024.1.2.3 r1=0.001 r0=0.001 x1=0 x0=0 c1=0 c0=0 length=0.001 switch=T
New Line.22CF_1101 phases=1 bus1=662881.2 bus2=22CF1101.2 r1=0.001 r0=0.001 x1=0 x0=0 c1=0 c0=0 length=0.001 switch=T
New Line.22CF_1186 phases=3 bus1=388091.1.2.3 bus2=22CF1186.1.2.3 r1=0.001 r0=0.001 x1=0 x0=0 c1=0 c0=0 length=0.001 switch=T
New Line.22CF_1272 phases=3 bus1=727961.1.2.3 bus2=22CF1272.1.2.3 r1=0.001 r0=0.001 x1=0 x0=0 c1=0 c0=0 length=0.001 switch=T
New Line.22CF_1349 phases=3 bus1=411871.1.2.3 bus2=22CF1349.1.2.3 r1=0.001 r0=0.001 x1=0 x0=0 c1=0 c0=0 length=0.001 switch=T
New Line.22CF_1354 phases=3 bus1=62051.1.2.3 bus2=22CF1354.1.2.3 r1=0.001 r0=0.001 x1=0 x0=0 c1=0 c0=0 length=0.001 switch=T
New Line.22CF_1435 phases=3 bus1=685951.1.2.3 bus2=22CF1435.1.2.3 r1=0.001 r0=0.001 x1=0 x0=0 c1=0 c0=0 length=0.001 switch=T
New Line.22CF_1445 phases=1 bus1=691211.2 bus2=22CF1445.2 r1=0.001 r0=0.001 x1=0 x0=0 c1=0 c0=0 length=0.001 switch=T
New Line.22CF_1447 phases=3 bus1=798331.1.2.3 bus2=22CF1447.1.2.3 r1=0.001 r0=0.001 x1=0 x0=0 c1=0 c0=0 length=0.001 switch=T
New Line.22CF_1475 phases=1 bus1=702131.3 bus2=22CF1475.3 r1=0.001 r0=0.001 x1=0 x0=0 c1=0 c0=0 length=0.001 switch=T
New Line.22CF_1510 phases=3 bus1=696401.1.2.3 bus2=22CF1510.1.2.3 r1=0.001 r0=0.001 x1=0 x0=0 c1=0 c0=0 length=0.001 switch=T
New Line.22CF_1681 phases=3 bus1=781861.1.2.3 bus2=22CF1681.1.2.3 r1=0.001 r0=0.001 x1=0 x0=0 c1=0 c0=0 length=0.001 switch=T
New Line.22CF_1708 phases=3 bus1=769761.1.2.3 bus2=22CF1708.1.2.3 r1=0.001 r0=0.001 x1=0 x0=0 c1=0 c0=0 length=0.001 switch=T
New Line.22CF_1742 phases=3 bus1=780961.1.2.3 bus2=22CF1742.1.2.3 r1=0.001 r0=0.001 x1=0 x0=0 c1=0 c0=0 length=0.001 switch=T
New Line.22CF_1744 phases=3 bus1=798411.1.2.3 bus2=22CF1744.1.2.3 r1=0.001 r0=0.001 x1=0 x0=0 c1=0 c0=0 length=0.001 switch=T
New Line.22CF_1814 phases=1 bus1=814701.2 bus2=22CF1814.2 r1=0.001 r0=0.001 x1=0 x0=0 c1=0 c0=0 length=0.001 switch=T
New Line.22CF_223 phases=3 bus1=296761.1.2.3 bus2=22CF223.1.2.3 r1=0.001 r0=0.001 x1=0 x0=0 c1=0 c0=0 length=0.001 switch=T
New Line.22CF_232 phases=3 bus1=341571.1.2.3 bus2=22CF232.1.2.3 r1=0.001 r0=0.001 x1=0 x0=0 c1=0 c0=0 length=0.001 switch=T
New Line.22CF_275 phases=1 bus1=343451.1 bus2=22CF275.1 r1=0.001 r0=0.001 x1=0 x0=0 c1=0 c0=0 length=0.001 switch=T
New Line.22CF_442 phases=3 bus1=360411.1.2.3 bus2=22CF442.1.2.3 r1=0.001 r0=0.001 x1=0 x0=0 c1=0 c0=0 length=0.001 switch=T
New Line.22CF_447 phases=3 bus1=236821.1.2.3 bus2=22CF447.1.2.3 r1=0.001 r0=0.001 x1=0 x0=0 c1=0 c0=0 length=0.001 switch=T
New Line.22CF_448 phases=3 bus1=20751.1.2.3 bus2=22CF448.1.2.3 r1=0.001 r0=0.001 x1=0 x0=0 c1=0 c0=0 length=0.001 switch=T
New Line.22CF_453 phases=2 bus1=463821.1.2 bus2=22CF453.1.2 r1=0.001 r0=0.001 x1=0 x0=0 c1=0 c0=0 length=0.001 switch=T
New Line.22CF_454 phases=1 bus1=644331.1 bus2=22CF454.1 r1=0.001 r0=0.001 x1=0 x0=0 c1=0 c0=0 length=0.001 switch=T
New Line.22CF_460 phases=1 bus1=360401.2 bus2=22CF460.2 r1=0.001 r0=0.001 x1=0 x0=0 c1=0 c0=0 length=0.001 switch=T
New Line.22CF_462 phases=3 bus1=250621.1.2.3 bus2=22CF462.1.2.3 r1=0.001 r0=0.001 x1=0 x0=0 c1=0 c0=0 length=0.001 switch=T
New Line.22CF_464 phases=3 bus1=361871.1.2.3 bus2=22CF464.1.2.3 r1=0.001 r0=0.001 x1=0 x0=0 c1=0 c0=0 length=0.001 switch=T
New Line.22CF_465 phases=3 bus1=616861.1.2.3 bus2=22CF465.1.2.3 r1=0.001 r0=0.001 x1=0 x0=0 c1=0 c0=0 length=0.001 switch=T
New Line.22CF_598 phases=3 bus1=280461.1.2.3 bus2=22CF598.1.2.3 r1=0.001 r0=0.001 x1=0 x0=0 c1=0 c0=0 length=0.001 switch=T
New Line.22CF_599 phases=3 bus1=360431.1.2.3 bus2=22CF599.1.2.3 r1=0.001 r0=0.001 x1=0 x0=0 c1=0 c0=0 length=0.001 switch=T
New Line.22CF_773 phases=3 bus1=257151.1.2.3 bus2=22CF773.1.2.3 r1=0.001 r0=0.001 x1=0 x0=0 c1=0 c0=0 length=0.001 switch=T
New Line.22CF_824 phases=3 bus1=627501.1.2.3 bus2=22CF824.1.2.3 r1=0.001 r0=0.001 x1=0 x0=0 c1=0 c0=0 length=0.001 switch=T
New Line.22CF_931 phases=3 bus1=673671.1.2.3 bus2=22CF931.1.2.3 r1=0.001 r0=0.001 x1=0 x0=0 c1=0 c0=0 length=0.001 switch=T
New Line.22CF_946 phases=3 bus1=651991.1.2.3 bus2=22CF946.1.2.3 r1=0.001 r0=0.001 x1=0 x0=0 c1=0 c0=0 length=0.001 switch=T
New Line.22CF_962 phases=3 bus1=635371.1.2.3 bus2=22CF962.1.2.3 r1=0.001 r0=0.001 x1=0 x0=0 c1=0 c0=0 length=0.001 switch=T
New Line.22CS_1320 phases=3 bus1=732741.1.2.3 bus2=22CS1320.1.2.3 r1=0.001 r0=0.001 x1=0 x0=0 c1=0 c0=0 length=0.001 switch=T
New Line.22CS_1497 phases=3 bus1=689481.1.2.3 bus2=22CS1497.1.2.3 r1=0.001 r0=0.001 x1=0 x0=0 c1=0 c0=0 length=0.001 switch=T
New Line.22CS_452 phases=3 bus1=342601.1.2.3 bus2=22CS452.1.2.3 r1=0.001 r0=0.001 x1=0 x0=0 c1=0 c0=0 length=0.001 switch=T
New Line.22CS_987 phases=3 bus1=801551.1.2.3 bus2=22CS987.1.2.3 r1=0.001 r0=0.001 x1=0 x0=0 c1=0 c0=0 length=0.001 switch=T
New Line.22FR_1048 phases=1 bus1=400441.3 bus2=22FR1048.3 r1=0.001 r0=0.001 x1=0 x0=0 c1=0 c0=0 length=0.001 switch=T
New Line.22FR_444 phases=3 bus1=485441.1.2.3 bus2=22FR444.1.2.3 r1=0.001 r0=0.001 x1=0 x0=0 c1=0 c0=0 length=0.001 switch=T
New Line.22FR_446 phases=3 bus1=359801.1.2.3 bus2=22FR446.1.2.3 r1=0.001 r0=0.001 x1=0 x0=0 c1=0 c0=0 length=0.001 switch=T
New Line.22FR_449 phases=1 bus1=360331.3 bus2=22FR449.3 r1=0.001 r0=0.001 x1=0 x0=0 c1=0 c0=0 length=0.001 switch=T
New Line.22FR_450 phases=3 bus1=793841.1.2.3 bus2=22FR450.1.2.3 r1=0.001 r0=0.001 x1=0 x0=0 c1=0 c0=0 length=0.001 switch=T
New Line.22FR_455 phases=1 bus1=760111.1 bus2=22FR455.1 r1=0.001 r0=0.001 x1=0 x0=0 c1=0 c0=0 length=0.001 switch=T
New Line.22FR_769 phases=3 bus1=321721.1.2.3 bus2=22FR769.1.2.3 r1=0.001 r0=0.001 x1=0 x0=0 c1=0 c0=0 length=0.001 switch=T
New Line.22FR_952 phases=3 bus1=595111.1.2.3 bus2=22FR952.1.2.3 r1=0.001 r0=0.001 x1=0 x0=0 c1=0 c0=0 length=0.001 switch=T
New Line.22RL_1122 phases=3 bus1=647423.1.2.3 bus2=22RL1122.1.2.3 r1=0.001 r0=0.001 x1=0 x0=0 c1=0 c0=0 length=0.001 switch=T
New Line.27CF_1214 phases=1 bus1=7251.3 bus2=27CF1214.3 r1=0.001 r0=0.001 x1=0 x0=0 c1=0 c0=0 length=0.001 switch=T
New Line.27CF_1264 phases=1 bus1=724671.3 bus2=27CF1264.3 r1=0.001 r0=0.001 x1=0 x0=0 c1=0 c0=0 length=0.001 switch=T
New Line.27CF_1824 phases=3 bus1=801971.1.2.3 bus2=27CF1824.1.2.3 r1=0.001 r0=0.001 x1=0 x0=0 c1=0 c0=0 length=0.001 switch=T
New Line.27CF_1826 phases=1 bus1=801951.2 bus2=27CF1826.2 r1=0.001 r0=0.001 x1=0 x0=0 c1=0 c0=0 length=0.001 switch=T
New Line.27CF_1924 phases=3 bus1=814671.1.2.3 bus2=27CF1924.1.2.3 r1=0.001 r0=0.001 x1=0 x0=0 c1=0 c0=0 length=0.001 switch=T
New Line.27CF_292 phases=1 bus1=345311.3 bus2=27CF292.3 r1=0.001 r0=0.001 x1=0 x0=0 c1=0 c0=0 length=0.001 switch=T
New Line.27CF_489 phases=2 bus1=183001.1.2 bus2=27CF489.1.2 r1=0.001 r0=0.001 x1=0 x0=0 c1=0 c0=0 length=0.001 switch=T
New Line.27CF_492 phases=3 bus1=738181.1.2.3 bus2=27CF492.1.2.3 r1=0.001 r0=0.001 x1=0 x0=0 c1=0 c0=0 length=0.001 switch=T
New Line.27CF_493 phases=3 bus1=183061.1.2.3 bus2=27CF493.1.2.3 r1=0.001 r0=0.001 x1=0 x0=0 c1=0 c0=0 length=0.001 switch=T
New Line.27CF_496 phases=1 bus1=68481.3 bus2=27CF496.3 r1=0.001 r0=0.001 x1=0 x0=0 c1=0 c0=0 length=0.001 switch=T
New Line.27CF_993 phases=3 bus1=46341.1.2.3 bus2=27CF993.1.2.3 r1=0.001 r0=0.001 x1=0 x0=0 c1=0 c0=0 length=0.001 switch=T
New Line.27CS_1822 phases=3 bus1=809771.1.2.3 bus2=27CS1822.1.2.3 r1=0.001 r0=0.001 x1=0 x0=0 c1=0 c0=0 length=0.001 switch=T
New Line.27CS_1823 phases=3 bus1=809781.1.2.3 bus2=27CS1823.1.2.3 r1=0.001 r0=0.001 x1=0 x0=0 c1=0 c0=0 length=0.001 switch=T
New Line.27CS_491 phases=3 bus1=183021.1.2.3 bus2=27CS491.1.2.3 r1=0.001 r0=0.001 x1=0 x0=0 c1=0 c0=0 length=0.001 switch=T
New Line.27FR_200 phases=1 bus1=72641.3 bus2=27FR200.3 r1=0.001 r0=0.001 x1=0 x0=0 c1=0 c0=0 length=0.001 switch=T
New Line.27FR_488 phases=1 bus1=793251.3 bus2=27FR488.3 r1=0.001 r0=0.001 x1=0 x0=0 c1=0 c0=0 length=0.001 switch=T
New Line.27FR_848 phases=3 bus1=613161.1.2.3 bus2=27FR848.1.2.3 r1=0.001 r0=0.001 x1=0 x0=0 c1=0 c0=0 length=0.001 switch=T
New Line.27FS_495 phases=1 bus1=790451.3 bus2=27FS495.3 r1=0.001 r0=0.001 x1=0 x0=0 c1=0 c0=0 length=0.001 switch=T
New Line.31CF_1765 phases=1 bus1=782391.1 bus2=31CF1765.1 r1=0.001 r0=0.001 x1=0 x0=0 c1=0 c0=0 length=0.001 switch=T
New Line.5CF_1066 phases=1 bus1=634131.3 bus2=5CF1066.3 r1=0.001 r0=0.001 x1=0 x0=0 c1=0 c0=0 length=0.001 switch=T
New Line.5CF_1136 phases=3 bus1=657901.1.2.3 bus2=5CF1136.1.2.3 r1=0.001 r0=0.001 x1=0 x0=0 c1=0 c0=0 length=0.001 switch=T
New Line.5CF_1322 phases=1 bus1=295731.3 bus2=5CF1322.3 r1=0.001 r0=0.001 x1=0 x0=0 c1=0 c0=0 length=0.001 switch=T
New Line.5CF_1573 phases=3 bus1=815402.1.2.3 bus2=5CF1573.1.2.3 r1=0.001 r0=0.001 x1=0 x0=0 c1=0 c0=0 length=0.001 switch=T
New Line.5CF_174 phases=1 bus1=321861.3 bus2=5CF174.3 r1=0.001 r0=0.001 x1=0 x0=0 c1=0 c0=0 length=0.001 switch=T
New Line.5CF_196 phases=1 bus1=204971.1 bus2=5CF196.1 r1=0.001 r0=0.001 x1=0 x0=0 c1=0 c0=0 length=0.001 switch=T
New Line.5CF_58 phases=2 bus1=187921.1.2 bus2=5CF58.1.2 r1=0.001 r0=0.001 x1=0 x0=0 c1=0 c0=0 length=0.001 switch=T
New Line.5CF_60 phases=2 bus1=187911.3.1 bus2=5CF60.3.1 r1=0.001 r0=0.001 x1=0 x0=0 c1=0 c0=0 length=0.001 switch=T
New Line.5CF_61 phases=1 bus1=187881.3 bus2=5CF61.3 r1=0.001 r0=0.001 x1=0 x0=0 c1=0 c0=0 length=0.001 switch=T
New Line.5CF_714 phases=3 bus1=368981.1.2.3 bus2=5CF714.1.2.3 r1=0.001 r0=0.001 x1=0 x0=0 c1=0 c0=0 length=0.001 switch=T
New Line.5CF_782 phases=1 bus1=324441.2 bus2=5CF782.2 r1=0.001 r0=0.001 x1=0 x0=0 c1=0 c0=0 length=0.001 switch=T
New Line.5CF_914 phases=1 bus1=368601.2 bus2=5CF914.2 r1=0.001 r0=0.001 x1=0 x0=0 c1=0 c0=0 length=0.001 switch=T
New Line.5CF_948 phases=1 bus1=257911.3 bus2=5CF948.3 r1=0.001 r0=0.001 x1=0 x0=0 c1=0 c0=0 length=0.001 switch=T
New Line.5CS_744 phases=3 bus1=369191.1.2.3 bus2=5CS744.1.2.3 r1=0.001 r0=0.001 x1=0 x0=0 c1=0 c0=0 length=0.001 switch=T
New Line.5FR_18 phases=1 bus1=368971.1 bus2=5FR18.1 r1=0.001 r0=0.001 x1=0 x0=0 c1=0 c0=0 length=0.001 switch=T
New Line.5FR_59 phases=1 bus1=220561.1 bus2=5FR59.1 r1=0.001 r0=0.001 x1=0 x0=0 c1=0 c0=0 length=0.001 switch=T
New Line.5FR_62 phases=3 bus1=663611.1.2.3 bus2=5FR62.1.2.3 r1=0.001 r0=0.001 x1=0 x0=0 c1=0 c0=0 length=0.001 switch=T
New Line.5FR_719 phases=3 bus1=806851.1.2.3 bus2=5FR719.1.2.3 r1=0.001 r0=0.001 x1=0 x0=0 c1=0 c0=0 length=0.001 switch=T
New Line.5FS_724 phases=1 bus1=321891.3 bus2=5FS724.3 r1=0.001 r0=0.001 x1=0 x0=0 c1=0 c0=0 length=0.001 switch=T
